Synthetic Data Cleaning Report
Input file: C:\Users\nahil\OneDrive\Desktop\All in One\CS Spring 2026\cs 440\Final Project\Job_Market_Analyzer\Data\synthetic_data.csv
Output file: C:\Users\nahil\OneDrive\Desktop\All in One\CS Spring 2026\cs 440\Final Project\Job_Market_Analyzer\Data\clean_data.csv

Total input rows: 8000
Rows retained: 5807
Rows removed: 2193
Retention rate: 72.59%

Removal reasons:
- duplicate_content_row: 215
- duplicate_record_id: 156
- invalid_date_posted: 297
- invalid_salary_range: 343
- invalid_years_experience: 352
- null_or_missing_required_field: 830
